           6
  t=         0.00000    2    2
C      -0.003964215      0.001908065     -0.156142404
Si      0.000915334     -0.001577065      1.565385503
H       0.902631724      0.089415655     -0.643089411
H       1.321448933     -0.054402915      2.401788593
H      -1.279407497      0.082830966      2.308130852
H      -0.922881383     -0.096783903     -0.691780647
           6
  t=         0.50000    2    2
C      -0.004722371      0.000002079     -0.160260526
Si      0.000884847     -0.001463222      1.565351414
H       0.903794006      0.096265622     -0.646097996
H       1.332867333     -0.053008291      2.425980924
H      -1.288907275      0.081926616      2.315796855
H      -0.916089365     -0.084590564     -0.670649547
           6
  t=         1.00000    2    2
C      -0.005555512     -0.001924378     -0.164595379
Si      0.000935962     -0.001355098      1.565709541
H       0.909825264      0.104824854     -0.652820771
H       1.340728584     -0.052244487      2.448190565
H      -1.297523802      0.081816152      2.323629398
H      -0.912864837     -0.073867074     -0.652295368
