           2
  t=         0.00000    3    3
I       0.000000000      0.000000000      0.000000000
Br      2.487132892      0.000000000      0.000000000
           2
  t=         0.50000    3    3
I      -0.000122239      0.000000000      0.000000000
Br      2.487329496      0.000000000      0.000000000
           2
  t=         1.00000    3    3
I      -0.000488391      0.000000000      0.000000000
Br      2.487918403      0.000000000      0.000000000
           2
  t=         1.50000    3    3
I      -0.001096777      0.000000000      0.000000000
Br      2.488896910      0.000000000      0.000000000
           2
  t=         2.00000    3    3
I      -0.001944633      0.000000000      0.000000000
Br      2.490260571      0.000000000      0.000000000
           2
  t=         2.50000    3    3
I      -0.003028162      0.000000000      0.000000000
Br      2.492003281      0.000000000      0.000000000
           2
  t=         3.00000    3    3
I      -0.004342612      0.000000000      0.000000000
Br      2.494117397      0.000000000      0.000000000
           2
  t=         3.50000    3    3
I      -0.005882356      0.000000000      0.000000000
Br      2.496593867      0.000000000      0.000000000
           2
  t=         4.00000    3    3
I      -0.007640994      0.000000000      0.000000000
Br      2.499422399      0.000000000      0.000000000
           2
  t=         4.50000    3    3
I      -0.009611460      0.000000000      0.000000000
Br      2.502591628      0.000000000      0.000000000
           2
  t=         5.00000    3    3
I      -0.011786136      0.000000000      0.000000000
Br      2.506089300      0.000000000      0.000000000
           2
  t=         5.50000    3    3
I      -0.014156962      0.000000000      0.000000000
Br      2.509902455      0.000000000      0.000000000
           2
  t=         6.00000    3    3
I      -0.016715555      0.000000000      0.000000000
Br      2.514017605      0.000000000      0.000000000
           2
  t=         6.50000    3    3
I      -0.019453310      0.000000000      0.000000000
Br      2.518420915      0.000000000      0.000000000
           2
  t=         7.00000    3    3
I      -0.022361508      0.000000000      0.000000000
Br      2.523098359      0.000000000      0.000000000
           2
  t=         7.50000    3    3
I      -0.025431405      0.000000000      0.000000000
Br      2.528035874      0.000000000      0.000000000
           2
  t=         8.00000    3    3
I      -0.028654318      0.000000000      0.000000000
Br      2.533219494      0.000000000      0.000000000
           2
  t=         8.50000    3    3
I      -0.032021695      0.000000000      0.000000000
Br      2.538635466      0.000000000      0.000000000
           2
  t=         9.00000    3    3
I      -0.035525180      0.000000000      0.000000000
Br      2.544270349      0.000000000      0.000000000
           2
  t=         9.50000    3    3
I      -0.039156665      0.000000000      0.000000000
Br      2.550111101      0.000000000      0.000000000
           2
  t=        10.00000    3    3
I      -0.042908328      0.000000000      0.000000000
Br      2.556145145      0.000000000      0.000000000
