           6
  t=         0.00000    8    2
C      -0.003964215      0.001908065     -0.156142404
Si      0.000915334     -0.001577065      1.565385503
H       0.902631724      0.089415655     -0.643089411
H       1.321448933     -0.054402915      2.401788593
H      -1.279407497      0.082830966      2.308130852
H      -0.922881383     -0.096783903     -0.691780647
           6
  t=         0.50000    8    2
C      -0.004852888     -0.000006081     -0.160214941
Si      0.000831062     -0.001443926      1.565256625
H       0.903919510      0.095571410     -0.646491331
H       1.340876898     -0.053069228      2.429338616
H      -1.294120647      0.081567302      2.315739937
H      -0.915963969     -0.083914595     -0.671468458
           6
  t=         1.00000    8    2
C      -0.006077005     -0.001949833     -0.164377056
Si      0.000719254     -0.001282191      1.565332945
H       0.910222146      0.102048926     -0.654351917
H       1.372094535     -0.052416798      2.461646172
H      -1.317482785      0.080355768      2.322976665
H      -0.912443625     -0.071179222     -0.655712423
