           6
  t=         0.00000    2    2
C       0.000000000      0.000000000      0.000000000
N       0.000000000      0.000000000      1.349999858
H       0.943101742      0.000000000     -0.544500066
H       0.943101742      0.000000000      1.879499867
H      -0.943101742      0.000000000      1.879499867
H      -0.943101742      0.000000000     -0.544500066
           6
  t=         0.50000    2    2
C      -0.004108045     -0.002610092     -0.003466166
N       0.003597846      0.004337732      1.351405862
H       0.930661832     -0.006417399     -0.533764048
H       0.941134355     -0.021126361      1.884332667
H      -0.951241256     -0.020869698      1.882397753
H      -0.944167904     -0.009012714     -0.527366341
           6
  t=         1.00000    2    2
C      -0.008209234     -0.005223047     -0.005614580
N       0.007100361      0.008648838      1.352309269
H       0.926438172     -0.012819748     -0.528864206
H       0.943462481     -0.042069494      1.890707709
H      -0.962606221     -0.041643815      1.886489857
H      -0.953277422     -0.017915256     -0.515839891
