           6
  t=         0.00000    5    2
C      -0.003964215      0.001908065     -0.156142404
Si      0.000915334     -0.001577065      1.565385503
H       0.902631724      0.089415655     -0.643089411
H       1.321448933     -0.054402915      2.401788593
H      -1.279407497      0.082830966      2.308130852
H      -0.922881383     -0.096783903     -0.691780647
           6
  t=         0.50000    5    2
C      -0.004718443     -0.000000212     -0.160220144
Si      0.000884252     -0.001459069      1.565322413
H       0.903147622      0.096583351     -0.645971620
H       1.332648731     -0.053307484      2.425977108
H      -1.288699061      0.082148795      2.315841039
H      -0.915462843     -0.084919288     -0.670492068
           6
  t=         1.00000    5    2
C      -0.005534813     -0.001932837     -0.164424128
Si      0.000931437     -0.001355429      1.565595276
H       0.907290533      0.106156179     -0.652364079
H       1.339841550     -0.053258162      2.448092480
H      -1.296697289      0.082878204      2.323842320
H      -0.910390444     -0.075136873     -0.651733970
           6
  t=         1.50000    5    2
C      -0.006195013     -0.003876963     -0.168669564
Si      0.001054892     -0.001307006      1.566217337
H       0.914307721      0.118198739     -0.661933826
H       1.342646099     -0.053787988      2.467654393
H      -1.303073568      0.085398181      2.331958240
H      -0.909402690     -0.067365845     -0.636559855
           6
  t=         2.00000    5    2
C      -0.006474985     -0.005818169     -0.172918989
Si      0.001246577     -0.001396152      1.567195698
H       0.923061653      0.132787754     -0.674149117
H       1.340873266     -0.053985149      2.484209068
H      -1.307666278      0.090465239      2.340159624
H      -0.913779267     -0.061236899     -0.625661720
           6
  t=         2.50000    5    2
C      -0.006186726     -0.007743201     -0.177190199
Si      0.001491679     -0.001751249      1.568528629
H       0.932241154      0.149979986     -0.688381152
H       1.334656069     -0.052403308      2.497398720
H      -1.310605127      0.099206641      2.348620980
H      -0.924039543     -0.055974404     -0.619225142
           6
  t=         3.00000    5    2
C      -0.005227360     -0.009649140     -0.181554001
Si      0.001772959     -0.002484258      1.570202534
H       0.940562421      0.169677606     -0.703962670
H       1.324549282     -0.047697107      2.507183657
H      -1.312304961      0.112512613      2.357626825
H      -0.939786066     -0.050642830     -0.616941722
           6
  t=         3.50000    5    2
C      -0.003603934     -0.011547431     -0.186114736
Si      0.002077075     -0.003612865      1.572200364
H       0.946881201      0.191606504     -0.720223896
H       1.311182631     -0.039533636      2.513820279
H      -1.313065088      0.130413372      2.367316286
H      -0.959750722     -0.044703979     -0.618161096
           6
  t=         4.00000    5    2
C      -0.001398217     -0.013452500     -0.190982419
Si      0.002391292     -0.005099522      1.574508041
H       0.950241060      0.215486935     -0.736558121
H       1.294980384     -0.028246285      2.517576205
H      -1.312875677      0.152514628      2.377663647
H      -0.982084042     -0.038020947     -0.622031163
           6
  t=         4.50000    5    2
C       0.001275553     -0.015375434     -0.196253090
Si      0.002699091     -0.006901632      1.577110437
H       0.949914302      0.241099494     -0.752463203
H       1.276285326     -0.014268420      2.518677521
H      -1.311574370      0.178425167      2.388590663
H      -1.004744679     -0.030600256     -0.627638429
           6
  t=         5.00000    5    2
C       0.004296112     -0.017324394     -0.201999035
Si      0.002979344     -0.008981720      1.579988219
H       0.945417507      0.268277983     -0.767546110
H       1.255481157      0.002008925      2.517363785
H      -1.308954623      0.207814573      2.400008736
H      -1.025809108     -0.022497374     -0.634129509
           6
  t=         5.50000    5    2
C       0.007549187     -0.019306546     -0.208265439
Si      0.003206650     -0.011306140      1.583116893
H       0.936505125      0.296900158     -0.781515465
H       1.233046114      0.020242163      2.513930650
H      -1.304806173      0.240383290      2.411824996
H      -1.043654509     -0.013795559     -0.640780598
           6
  t=         6.00000    5    2
C       0.010933617     -0.021330071     -0.215070853
Si      0.003351910     -0.013842939      1.586466752
H       0.923152680      0.326885098     -0.794171194
H       1.209572067      0.040124185      2.508753166
H      -1.298929501      0.275833454      2.423939616
H      -1.057035534     -0.004598563     -0.647021437
           6
  t=         6.50000    5    2
C       0.014363004     -0.023405457     -0.222409788
Si      0.003383052     -0.016560763      1.590003261
H       0.905535702      0.358196103     -0.805394414
H       1.185766020      0.061378637      2.502294394
H      -1.291143938      0.313852513      2.436243735
H      -1.065096300      0.004973730     -0.652431834
           6
  t=         7.00000    5    2
C       0.017765617     -0.025547025     -0.230255886
Si      0.003266035     -0.019428159      1.593687716
H       0.884005636      0.390845141     -0.815135975
H       1.162436092      0.083759312      2.495100904
H      -1.281292732      0.354103381      2.448619114
H      -1.067354104      0.014790066     -0.656728656
           6
  t=         7.50000    5    2
C       0.021084844     -0.027773891     -0.238565337
Si      0.002966302     -0.022413330      1.597478328
H       0.859060499      0.424896242     -0.823402195
H       1.140461085      0.107051516      2.487783941
H      -1.269248126      0.396219983      2.460939589
H      -1.063680154      0.024712115     -0.659752243
           6
  t=         8.00000    5    2
C       0.024281479     -0.030110313     -0.247280154
Si      0.002450758     -0.025483984      1.601331763
H       0.831306896      0.460464096     -0.830234518
H       1.120740960      0.131070762      2.480983144
H      -1.254915863      0.439806909      2.473074379
H      -1.054289755      0.034597480     -0.661457565
           6
  t=         8.50000    5    2
C       0.027338212     -0.032585216     -0.256331675
Si      0.001690289     -0.028607115      1.605205204
H       0.801411692      0.497702186     -0.835680688
H       1.104130241      0.155656655      2.475315585
H      -1.238239297      0.484440742      2.484891783
H      -1.039746617      0.044304675     -0.661911153
           6
  t=         9.00000    5    2
C       0.030265900     -0.035230591     -0.265644097
Si      0.000662574     -0.031748599      1.609058677
H       0.770044642      0.536777336     -0.839757492
H       1.091360155      0.180658281      2.471313943
H      -1.219202379      0.529673990      2.496263184
H      -1.020977450      0.053698913     -0.661293210
           6
  t=         9.50000    5    2
C       0.033110052     -0.038078769     -0.275138339
Si     -0.000645225     -0.034872592      1.612857373
H       0.737818187      0.577828402     -0.842409266
H       1.082962522      0.205912351      2.469365500
H      -1.197831821      0.575040064      2.507066882
H      -0.999285240      0.062661168     -0.659900322
           6
  t=        10.00000    5    2
C       0.035954753     -0.041158854     -0.284736012
Si     -0.002234483     -0.037940857      1.616573474
H       0.705235532      0.620914058     -0.843471088
H       1.079211111      0.231217190      2.469665015
H      -1.174197931      0.620059637      2.517191382
H      -0.976339744      0.071098833     -0.658141768
