           6
  t=         0.00000    5    2
C      -0.003964215      0.001908065     -0.156142404
Si      0.000915334     -0.001577065      1.565385503
H       0.902631724      0.089415655     -0.643089411
H       1.321448933     -0.054402915      2.401788593
H      -1.279407497      0.082830966      2.308130852
H      -0.922881383     -0.096783903     -0.691780647
           6
  t=         0.50000    5    2
C      -0.004715702     -0.000002275     -0.160121942
Si      0.000881979     -0.001465411      1.565290171
H       0.903088906      0.096464710     -0.645998174
H       1.332517106     -0.053131812      2.425833267
H      -1.288550379      0.082106978      2.315743306
H      -0.915390732     -0.084733889     -0.670498178
           6
  t=         1.00000    5    2
C      -0.005526924     -0.001935053     -0.164027883
Si      0.000923523     -0.001368690      1.565465817
H       0.907052790      0.105611553     -0.652476917
H       1.339336024     -0.052690521      2.447564134
H      -1.296098440      0.082578815      2.323410699
H      -0.910120250     -0.074466000     -0.651785462
           6
  t=         1.50000    5    2
C      -0.006189847     -0.003872879     -0.167772371
Si      0.001040961     -0.001294316      1.565924840
H       0.913769448      0.116813897     -0.662183640
H       1.341551202     -0.052982420      2.466601248
H      -1.301697936      0.084301426      2.330873313
H      -0.908819948     -0.066090713     -0.636735063
           6
  t=         2.00000    5    2
C      -0.006505176     -0.005799130     -0.171312613
Si      0.001232910     -0.001251513      1.566673692
H       0.922103503      0.129989159     -0.674554689
H       1.338959712     -0.053913093      2.482661505
H      -1.305078730      0.087366121      2.337921683
H      -0.912756230     -0.059653075     -0.626106742
           6
  t=         2.50000    5    2
C      -0.006325763     -0.007698941     -0.174654262
Si      0.001496067     -0.001251253      1.567713017
H       0.930737504      0.145024739     -0.688904384
H       1.331495030     -0.055389262      2.495551698
H      -1.306058005      0.091899838      2.344400780
H      -0.922388312     -0.055133134     -0.620188491
           6
  t=         3.00000    5    2
C      -0.005583505     -0.009559477     -0.177846214
Si      0.001825299     -0.001306036      1.569037566
H       0.938357413      0.161795090     -0.704517623
H       1.319218725     -0.057319811      2.505165325
H      -1.304541023      0.098063345      2.350213335
H      -0.937226849     -0.052463044     -0.618763729
