           6
  t=         0.00000    2    2
C      -0.003964215      0.001908065     -0.156142404
Si      0.000915334     -0.001577065      1.565385503
H       0.902631724      0.089415655     -0.643089411
H       1.321448933     -0.054402915      2.401788593
H      -1.279407497      0.082830966      2.308130852
H      -0.922881383     -0.096783903     -0.691780647
           6
  t=         0.50000    2    2
C      -0.004731383     -0.000000070     -0.160238788
Si      0.000885407     -0.001443865      1.565308498
H       0.903645945      0.096456653     -0.645993423
H       1.333458993     -0.053410721      2.426588355
H      -1.289310163      0.081939079      2.316070999
H      -0.916030965     -0.084902572     -0.670690028
           6
  t=         1.00000    2    2
C      -0.005627048     -0.001935876     -0.164513881
Si      0.000933255     -0.001241772      1.565534369
H       0.909289352      0.105504142     -0.652384776
H       1.343560615     -0.054244037      2.450918037
H      -1.299244060      0.081529435      2.324559183
H      -0.912488203     -0.075269879     -0.652444388
