           6
  t=         0.00000    2    2
C      -0.003964215      0.001908065     -0.156142404
Si      0.000915334     -0.001577065      1.565385503
H       0.902631724      0.089415655     -0.643089411
H       1.321448932     -0.054402915      2.401788593
H      -1.279407496      0.082830966      2.308130852
H      -0.922881383     -0.096783903     -0.691780646
           6
  t=         0.50000    2    2
C      -0.004718104     -0.000000202     -0.160219774
Si      0.000884098     -0.001459154      1.565321869
H       0.903133828      0.096583430     -0.645968329
H       1.332652285     -0.053307423      2.425980895
H      -1.288698654      0.082150514      2.315842209
H      -0.915452771     -0.084918917     -0.670489618
           6
  t=         1.00000    2    2
C      -0.005533625     -0.001932758     -0.164422860
Si      0.000930788     -0.001356521      1.565593160
H       0.907237004      0.106157959     -0.652352220
H       1.339856190     -0.053249618      2.448106217
H      -1.296697596      0.082892066      2.323848752
H      -0.910347384     -0.075131688     -0.651722360
           6
  t=         1.50000    2    2
C      -0.006192484     -0.003876735     -0.168666784
Si      0.001053293     -0.001311527      1.566212609
H       0.914193821      0.118207708     -0.661910835
H       1.342679924     -0.053746272      2.467681181
H      -1.303078325      0.085448326      2.331977477
H      -0.909303598     -0.067343879     -0.636530742
           6
  t=         2.00000    2    2
C      -0.006469868     -0.005817584     -0.172913986
Si      0.001243278     -0.001409668      1.567187341
H       0.922875168      0.132814883     -0.674117543
H       1.340938871     -0.053850400      2.484247469
H      -1.307686588      0.090602941      2.340207025
H      -0.913607422     -0.061168242     -0.625606675
           6
  t=         2.50000    2    2
C      -0.006176512     -0.007742043     -0.177182426
Si      0.001485491     -0.001783656      1.568515345
H       0.931980201      0.150038782     -0.688348757
H       1.334784781     -0.052063651      2.497449302
H      -1.310671623      0.099516330      2.348725166
H      -0.923790664     -0.055796744     -0.619136093
           6
  t=         3.00000    2    2
C      -0.005210118     -0.009648050     -0.181543297
Si      0.001762748     -0.002544200      1.570182611
H       0.940236610      0.169770159     -0.703939137
H       1.324798712     -0.047045710      2.507268618
H      -1.312466028      0.113057300      2.357819043
H      -0.939470462     -0.050280478     -0.616816805
