           3
  t=         0.00000    5    2
S       0.000000000     -0.004112390      0.005051028
O       0.000000000     -1.258584669      0.712919434
O       0.000000000      1.266804882      0.717616385
           3
  t=         0.50000    5    2
S       0.000000000      0.001763748      0.010225669
O       0.000000000     -1.257807600      0.711029981
O       0.000000000      1.254281022      0.709162932
           3
  t=         1.00000    5    2
S       0.000000000      0.007626034      0.014994395
O       0.000000000     -1.257716479      0.709538318
O       0.000000000      1.242470800      0.701123089
           3
  t=         1.50000    5    2
S       0.000000000      0.013419477      0.019301032
O       0.000000000     -1.258335387      0.708469184
O       0.000000000      1.231508213      0.693584404
           3
  t=         2.00000    5    2
S       0.000000000      0.019078368      0.023091872
O       0.000000000     -1.259668639      0.707838736
O       0.000000000      1.221528924      0.686638083
           3
  t=         2.50000    5    2
S       0.000000000      0.024530400      0.026318757
O       0.000000000     -1.261703848      0.707653814
O       0.000000000      1.212665074      0.680373548
           3
  t=         3.00000    5    2
S       0.000000000      0.029700543      0.028940598
O       0.000000000     -1.264414946      0.707912635
O       0.000000000      1.205040575      0.674874715
           3
  t=         3.50000    5    2
S       0.000000000      0.034514228      0.030924146
O       0.000000000     -1.267764697      0.708605850
O       0.000000000      1.198767241      0.670217400
           3
  t=         4.00000    5    2
S       0.000000000      0.038899946      0.032244390
O       0.000000000     -1.271706768      0.709717617
O       0.000000000      1.193941679      0.666467436
           3
  t=         4.50000    5    2
S       0.000000000      0.042791373      0.032884769
O       0.000000000     -1.276187491      0.711226615
O       0.000000000      1.190642793      0.663679252
           3
  t=         5.00000    5    2
S       0.000000000      0.046129139      0.032837232
O       0.000000000     -1.281147419      0.713106984
O       0.000000000      1.188929810      0.661894797
           3
  t=         5.50000    5    2
S       0.000000000      0.048862293      0.032102212
O       0.000000000     -1.286522745      0.715329196
O       0.000000000      1.188840765      0.661142738
           3
  t=         6.00000    5    2
S       0.000000000      0.050949504      0.030688485
O       0.000000000     -1.292246602      0.717860877
O       0.000000000      1.190391407      0.661437905
           3
  t=         6.50000    5    2
S       0.000000000      0.052360016      0.028612945
O       0.000000000     -1.298250285      0.720667576
O       0.000000000      1.193574510      0.662780976
           3
  t=         7.00000    5    2
S       0.000000000      0.053074362      0.025900291
O       0.000000000     -1.304464379      0.723713493
O       0.000000000      1.198359570      0.665158383
           3
  t=         7.50000    5    2
S       0.000000000      0.053084849      0.022582607
O       0.000000000     -1.310819807      0.726962165
O       0.000000000      1.204692888      0.668542452
           3
  t=         8.00000    5    2
S       0.000000000      0.052395812      0.018698865
O       0.000000000     -1.317248783      0.730377117
O       0.000000000      1.212498014      0.672891756
           3
  t=         8.50000    5    2
S       0.000000000      0.051023642      0.014294324
O       0.000000000     -1.323685679      0.733922475
O       0.000000000      1.221676553      0.678151698
           3
  t=         9.00000    5    2
S       0.000000000      0.048996604      0.009419839
O       0.000000000     -1.330067792      0.737563552
O       0.000000000      1.232109305      0.684255312
           3
  t=         9.50000    5    2
S       0.000000000      0.046354436      0.004131059
O       0.000000000     -1.336336014      0.741267422
O       0.000000000      1.243657731      0.691124282
           3
  t=        10.00000    5    2
S       0.000000000      0.043147753     -0.001512494
O       0.000000000     -1.342435399      0.745003498
O       0.000000000      1.256165714      0.698670215
           3
  t=        10.50000    5    2
S       0.000000000      0.039437200     -0.007448560
O       0.000000000     -1.348315609      0.748744186
O       0.000000000      1.269461694      0.706796249
           3
  t=        11.00000    8    2
S       0.000000000      0.035291198     -0.013614632
O       0.000000000     -1.353930644      0.752466085
O       0.000000000      1.283362906      0.715400840
           3
  t=        11.50000    8    2
S       0.000000000      0.030729408     -0.019960721
O       0.000000000     -1.359096176      0.756131575
O       0.000000000      1.297645737      0.724421669
           3
  t=        12.00000    8    2
S       0.000000000      0.025897745     -0.026409792
O       0.000000000     -1.363924342      0.759745874
O       0.000000000      1.312130643      0.733699539
           3
  t=        12.50000   11    2
S       0.000000000      0.020885580     -0.032906523
O       0.000000000     -1.368385487      0.763304728
O       0.000000000      1.326609330      0.743128124
           3
  t=        13.00000   11    2
S       0.000000000      0.015670972     -0.039396996
O       0.000000000     -1.372211841      0.766742656
O       0.000000000      1.340857898      0.752665109
           3
  t=        13.50000   11    2
S       0.000000000      0.010455273     -0.045865525
O       0.000000000     -1.375620011      0.770158028
O       0.000000000      1.354690462      0.762180783
           3
  t=        14.00000   12    3
S       0.000000000      0.005282868     -0.052315232
O       0.000000000     -1.378545516      0.773579310
O       0.000000000      1.367953823      0.771652920
           3
  t=        14.50000   12    3
S       0.000000000      0.000442674     -0.058039241
O       0.000000000     -1.380538759      0.776470732
O       0.000000000      1.379620963      0.780204218
           3
  t=        15.00000   12    3
S       0.000000000     -0.004395000     -0.063299187
O       0.000000000     -1.381798203      0.778899776
O       0.000000000      1.390549269      0.788290261
           3
  t=        15.50000   12    3
S       0.000000000     -0.009076198     -0.068046436
O       0.000000000     -1.382394507      0.780905754
O       0.000000000      1.400501659      0.795774519
           3
  t=        16.00000   12    3
S       0.000000000     -0.013477309     -0.072242435
O       0.000000000     -1.382378040      0.782520723
O       0.000000000      1.409281419      0.802547870
           3
  t=        16.50000   12    3
S       0.000000000     -0.017495227     -0.075854239
O       0.000000000     -1.381789380      0.783770636
O       0.000000000      1.416723035      0.808518506
           3
  t=        17.00000   12    3
S       0.000000000     -0.021042355     -0.078854187
O       0.000000000     -1.380665000      0.784677873
O       0.000000000      1.422687878      0.813608754
           3
  t=        17.50000   12    3
S       0.000000000     -0.024044602     -0.081220431
O       0.000000000     -1.379039853      0.785262905
O       0.000000000      1.427062811      0.817754470
           3
  t=        18.00000   12    3
S       0.000000000     -0.026440806     -0.082937500
O       0.000000000     -1.376948427      0.785545199
O       0.000000000      1.429760063      0.820905261
           3
  t=        18.50000   12    3
S       0.000000000     -0.028182741     -0.083996736
O       0.000000000     -1.374425052      0.785543643
O       0.000000000      1.430717565      0.823024934
           3
  t=        19.00000   12    3
S       0.000000000     -0.029235350     -0.084396572
O       0.000000000     -1.371503841      0.785276688
O       0.000000000      1.429899359      0.824091903
           3
  t=        19.50000   12    3
S       0.000000000     -0.029577002     -0.084142652
O       0.000000000     -1.368218458      0.784762331
O       0.000000000      1.427295867      0.824099455
           3
  t=        20.00000   12    3
S       0.000000000     -0.029199666     -0.083247821
O       0.000000000     -1.364601808      0.784017994
O       0.000000000      1.422923946      0.823055844
           3
  t=        20.50000   12    3
S       0.000000000     -0.028108979     -0.081731965
O       0.000000000     -1.360685697      0.783060335
O       0.000000000      1.416826666      0.820984162
           3
  t=        21.00000   12    3
S       0.000000000     -0.026324165     -0.079621724
O       0.000000000     -1.356500471      0.781905002
O       0.000000000      1.409072800      0.817922015
           3
  t=        21.50000   12    3
S       0.000000000     -0.023877843     -0.076950062
O       0.000000000     -1.352074645      0.780566312
O       0.000000000      1.399756067      0.813920978
           3
  t=        22.00000   12    3
S       0.000000000     -0.020815763     -0.073755681
O       0.000000000     -1.347434455      0.779056821
O       0.000000000      1.388994147      0.809045857
           3
  t=        22.50000   12    3
S       0.000000000     -0.017196582     -0.070082255
O       0.000000000     -1.342603244      0.777386682
O       0.000000000      1.376927633      0.803373801
           3
  t=        23.00000   12    3
S       0.000000000     -0.013091941     -0.065977424
O       0.000000000     -1.337600433      0.775562599
O       0.000000000      1.363719148      0.796993337
           3
  t=        23.50000   12    3
S       0.000000000     -0.008587420     -0.061491477
O       0.000000000     -1.332439503      0.773585962
O       0.000000000      1.349553236      0.790003600
           3
  t=        24.00000   12    3
S       0.000000000     -0.003785894     -0.056675705
O       0.000000000     -1.327123492      0.771449285
O       0.000000000      1.334638566      0.782514602
           3
  t=        24.50000   12    3
S       0.000000000      0.001182551     -0.051581383
O       0.000000000     -1.321633889      0.769129529
O       0.000000000      1.319216656      0.774651879
           3
  t=        25.00000   12    3
S       0.000000000      0.006135828     -0.046267516
O       0.000000000     -1.315904951      0.766581682
O       0.000000000      1.303585731      0.766578391
           3
  t=        25.50000   11    2
S       0.000000000      0.010834216     -0.040843560
O       0.000000000     -1.309818231      0.763778246
O       0.000000000      1.288106511      0.758540431
           3
  t=        26.00000   11    2
S       0.000000000      0.015621724     -0.035222079
O       0.000000000     -1.303210324      0.760824428
O       0.000000000      1.271927908      0.750258055
           3
  t=        26.50000   11    2
S       0.000000000      0.020423030     -0.029798014
O       0.000000000     -1.296767538      0.758075803
O       0.000000000      1.255886842      0.742165110
           3
  t=        27.00000    8    2
S       0.000000000      0.025125971     -0.024625489
O       0.000000000     -1.290501105      0.755522410
O       0.000000000      1.240218749      0.734379745
           3
  t=        27.50000    5    6
S       0.000000000      0.029568335     -0.019779952
O       0.000000000     -1.284205410      0.753145982
O       0.000000000      1.225042240      0.727071054
           3
  t=        28.00000    5    2
S       0.000000000      0.033668728     -0.015356318
O       0.000000000     -1.278069670      0.750995440
O       0.000000000      1.210709231      0.720379840
           3
  t=        28.50000    5    2
S       0.000000000      0.037449179     -0.011335491
O       0.000000000     -1.272237088      0.749064782
O       0.000000000      1.197318904      0.714273929
           3
  t=        29.00000    5    2
S       0.000000000      0.040842150     -0.007770615
O       0.000000000     -1.266742192      0.747368556
O       0.000000000      1.185040787      0.708845006
           3
  t=        29.50000    5    2
S       0.000000000      0.043786685     -0.004711638
O       0.000000000     -1.261617774      0.745921872
O       0.000000000      1.174029512      0.704177803
           3
  t=        30.00000    5    2
S       0.000000000      0.046230086     -0.002203513
O       0.000000000     -1.256895109      0.744739566
O       0.000000000      1.164421693      0.700347343
