           6
  t=         0.00000    5    2
C      -0.003964215      0.001908065     -0.156142404
Si      0.000915334     -0.001577065      1.565385503
H       0.902631724      0.089415655     -0.643089411
H       1.321448932     -0.054402915      2.401788593
H      -1.279407496      0.082830966      2.308130852
H      -0.922881383     -0.096783903     -0.691780646
           6
  t=         0.50000    5    2
C      -0.004716749      0.000002990     -0.160304188
Si      0.000884113     -0.001467348      1.565358577
H       0.903372034      0.096191792     -0.645916023
H       1.332782657     -0.052933362      2.425925116
H      -1.288837531      0.081933904      2.315786580
H      -0.915699028     -0.084495248     -0.670444426
           6
  t=         1.00000    5    2
C      -0.005535064     -0.001919567     -0.164763230
Si      0.000932784     -0.001375275      1.565738702
H       0.908185053      0.104534744     -0.652132889
H       1.340383196     -0.051904563      2.447950086
H      -1.297241690      0.081877955      2.323588963
H      -0.911316615     -0.073475877     -0.651513228
