           6
  t=         0.00000    2    2
C      -0.003964215      0.001908065     -0.156142404
Si      0.000915334     -0.001577065      1.565385503
H       0.902631724      0.089415655     -0.643089411
H       1.321448932     -0.054402915      2.401788593
H      -1.279407496      0.082830966      2.308130852
H      -0.922881383     -0.096783903     -0.691780646
           6
  t=         0.50000    2    2
C      -0.004852888     -0.000006081     -0.160214941
Si      0.000831062     -0.001443926      1.565256625
H       0.903919511      0.095571409     -0.646491331
H       1.340876907     -0.053069228      2.429338620
H      -1.294120654      0.081567302      2.315739938
H      -0.915963969     -0.083914594     -0.671468459
           6
  t=         1.00000    2    2
C      -0.006077017     -0.001949835     -0.164377078
Si      0.000719245     -0.001282184      1.565332945
H       0.910222101      0.102048900     -0.654351852
H       1.372094720     -0.052416835      2.461646407
H      -1.317482587      0.080355648      2.322976532
H      -0.912443562     -0.071179228     -0.655712329
