           6
  t=         0.00000    2    2
C      -0.003964215      0.001908065     -0.156142404
Si      0.000915334     -0.001577065      1.565385503
H       0.902631724      0.089415655     -0.643089411
H       1.321448933     -0.054402915      2.401788593
H      -1.279407497      0.082830966      2.308130852
H      -0.922881383     -0.096783903     -0.691780647
           6
  t=         0.50000    2    2
C      -0.004853038     -0.000006265     -0.160215133
Si      0.000831044     -0.001443871      1.565256610
H       0.903919717      0.095572146     -0.646490708
H       1.340876735     -0.053069558      2.429340189
H      -1.294118748      0.081566143      2.315739660
H      -0.915963623     -0.083913177     -0.671467656
           6
  t=         1.00000    2    2
C      -0.006077505     -0.001950177     -0.164377072
Si      0.000719000     -0.001282013      1.565332844
H       0.910223044      0.102049882     -0.654350211
H       1.372097901     -0.052418291      2.461651922
H      -1.317474337      0.080352563      2.322971933
H      -0.912443345     -0.071176337     -0.655712158
