           6
  t=         0.00000    2    2
C      -0.003964215      0.001908065     -0.156142404
Si      0.000915334     -0.001577065      1.565385503
H       0.902631724      0.089415655     -0.643089411
H       1.321448933     -0.054402915      2.401788593
H      -1.279407497      0.082830966      2.308130852
H      -0.922881383     -0.096783903     -0.691780647
           6
  t=         0.50000    2    2
C      -0.004853038     -0.000006265     -0.160215133
Si      0.000831044     -0.001443871      1.565256610
H       0.903919717      0.095572146     -0.646490708
H       1.340876735     -0.053069558      2.429340189
H      -1.294118748      0.081566143      2.315739660
H      -0.915963623     -0.083913177     -0.671467656
           6
  t=         1.00000    2    2
C      -0.006077297     -0.001950231     -0.164377236
Si      0.000719151     -0.001282072      1.565332886
H       0.910222536      0.102051279     -0.654350736
H       1.372096530     -0.052417755      2.461649439
H      -1.317479332      0.080353543      2.322974578
H      -0.912443127     -0.071176962     -0.655711010
