           6
  t=         0.00000    5    2
C      -0.003964215      0.001908065     -0.156142404
Si      0.000915334     -0.001577065      1.565385503
H       0.902631724      0.089415655     -0.643089411
H       1.321448933     -0.054402915      2.401788593
H      -1.279407497      0.082830966      2.308130852
H      -0.922881383     -0.096783903     -0.691780647
           6
  t=         0.50000    5    2
C      -0.004714209     -0.000000382     -0.160169081
Si      0.000881802     -0.001469355      1.565309720
H       0.903144679      0.096451703     -0.646000148
H       1.332533929     -0.053077728      2.425843623
H      -1.288568374      0.082129577      2.315760238
H      -0.915458182     -0.084710622     -0.670504913
           6
  t=         1.00000    5    2
C      -0.005522418     -0.001928794     -0.164218922
Si      0.000922922     -0.001384783      1.565544420
H       0.907275289      0.105564400     -0.652482070
H       1.339405278     -0.052469434      2.447608673
H      -1.296172183      0.082672511      2.323478336
H      -0.910375241     -0.074361409     -0.651799813
           6
  t=         1.50000    5    2
C      -0.006182510     -0.003860929     -0.168205948
Si      0.001039732     -0.001331690      1.566102159
H       0.914266636      0.116715079     -0.662190987
H       1.341710094     -0.052469160      2.466705176
H      -1.301866043      0.084522255      2.331024711
H      -0.909361172     -0.065830764     -0.636742849
           6
  t=         2.00000    5    2
C      -0.006496798     -0.005781065     -0.172088388
Si      0.001230806     -0.001320941      1.566989288
H       0.922978224      0.129823505     -0.674562472
H       1.339246934     -0.052961666      2.482849720
H      -1.305380082      0.087782484      2.338188792
H      -0.913658170     -0.059143017     -0.626078129
           6
  t=         2.50000    5    2
C      -0.006319191     -0.007674943     -0.175871720
Si      0.001492707     -0.001365854      1.568206075
H       0.932085712      0.144778116     -0.688912224
H       1.331951077     -0.053824172      2.495847274
H      -1.306531441      0.092596900      2.344814169
H      -0.923704093     -0.054253109     -0.620080712
           6
  t=         3.00000    5    2
C      -0.005581671     -0.009530041     -0.179603162
Si      0.001820068     -0.001481819      1.569746620
H       0.940266610      0.161452935     -0.704528855
H       1.319886716     -0.054928798      2.505588352
H      -1.305225279      0.099145518      2.350801848
H      -0.938996378     -0.051064893     -0.618527508
